opendss_networks/LV32_100bus/Switches.dss
new line.Switch_49_CLOSED lineCode=ughv_400al_triplex_ug_4w_bundled bus1=B3344 bus2=B1562 length=0.00100000000000 units=km switch=y phases=4
new line.Switch_483_CLOSED lineCode=ughv_400al_triplex_ug_4w_bundled bus1=B1158 bus2=B3099 length=0.00100000000000 units=km switch=y phases=4
new line.Switch_666_CLOSED lineCode=ughv_400al_triplex_ug_4w_bundled bus1=B14 bus2=B3366 length=0.00100000000000 units=km switch=y phases=4
! new line.Switch_1672_OPEN lineCode=ughv_400al_triplex_ug_4w_bundled bus1=B302 bus2=B2528 length=0.00100000000000 units=km switch=y phases=4
new line.Switch_2259_CLOSED lineCode=ughv_400al_triplex_ug_4w_bundled bus1=B369 bus2=B2427 length=0.00100000000000 units=km switch=y phases=4
new line.Switch_2445_CLOSED lineCode=ughv_400al_triplex_ug_4w_bundled bus1=B1907 bus2=B2803 length=0.00100000000000 units=km switch=y phases=4
! new line.Switch_2448_OPEN lineCode=ughv_400al_triplex_ug_4w_bundled bus1=B1674 bus2=B2809 length=0.00100000000000 units=km switch=y phases=4
! new line.Switch_2627_OPEN lineCode=ughv_400al_triplex_ug_4w_bundled bus1=B3335 bus2=B983 length=0.00100000000000 units=km switch=y phases=4
new line.Switch_2657_CLOSED lineCode=ughv_400al_triplex_ug_4w_bundled bus1=B2329 bus2=B803 length=0.00100000000000 units=km switch=y phases=4
new line.Switch_2769_CLOSED lineCode=ughv_400al_triplex_ug_4w_bundled bus1=B3035 bus2=B2230 length=0.00100000000000 units=km switch=y phases=4
! new line.Switch_2922_OPEN lineCode=ughv_400al_triplex_ug_4w_bundled bus1=B2963 bus2=B2069 length=0.00100000000000 units=km switch=y phases=4
! new line.Switch_4310_OPEN lineCode=ughv_400al_triplex_ug_4w_bundled bus1=B2260 bus2=B2735 length=0.00100000000000 units=km switch=y phases=4
